resultados/_temp_alt0_1p20/LineSummary.csv
line,maxCurrentA,normAmps,maxLoadingPct,meanLoadingPct,overloadHours
rbt_1607347,93.19320684893417,124.95,74.58439923884286,25.74668395182414,0
sbt_7584,93.19321693843615,163.8,56.8945158354311,19.64010024213712,0
sbt_22840,93.19321231792085,163.8,56.89451301460369,19.640100166765027,0
rbt_630758,30.832368003508783,76.65,40.22487671690643,17.81151467203893,0
rbt_637576,24.66562829446141,61.95,39.81538062059953,14.765400506950003,0
rbt_632607,48.93562077762757,124.95,39.164162287016865,18.420298822959683,0
rbt_1130761,30.428360147937006,90.3,33.69696583381728,15.859327151095412,0
rbt_606147,25.292360344292064,76.65,32.997208537889186,12.486837335869161,0
rbt_605836,25.82960043156799,90.3,28.60420867283277,13.472211656840086,0
rbt_637360,17.66143833898814,61.95,28.509182145259302,13.394209652632336,0
rbt_637918,17.623722673577213,61.95,28.448301329422453,11.429860570637276,0
rbt_626476,15.259812366982997,61.95,24.63246548342695,11.590576405891733,0
rbt_1607350,21.935555955160105,90.3,24.291867059977967,8.845653610095257,0
rbt_606126,13.522488428881077,61.95,21.82806848891215,7.848711266617524,0
rbt_3405844,18.941258647303414,90.3,20.975923197456716,7.2685923755545865,0
rbt_1633671,12.992198204975944,61.95,20.97207135589337,10.406475427947106,0
rbt_1627323,15.018951100871542,76.65,19.594195826316426,9.219320609742025,0
rbt_606143,14.824901785766638,76.65,19.34103298860618,6.891641031901628,0
sbt_34378,24.656807290684817,128.1,19.248093123095096,9.445178624900652,0
sbt_34379,24.579839631779176,128.1,19.188009080233552,9.309583977158532,0
rbt_637397,11.715018295175417,61.95,18.910441154439734,8.888113893497264,0
rbt_635862,10.774173106115505,61.95,17.39172414223649,5.997410194267125,0
rbt_3435739,13.114883959946322,76.65,17.11008996731418,8.495300344238762,0
rbt_605816,10.170321057045879,61.95,16.416983142931198,6.2885516760692335,0
smt_29422,26.130326011721827,163.8,15.952579982736156,9.772755860931852,0
smt_19119,26.127708596976223,163.8,15.950982049436032,9.773537519594086,0
smt_17184,26.126528409680365,163.8,15.950261544371406,9.773025612931102,0
sbt_24791,25.292381611183842,163.8,15.441014414642149,5.843200162692331,0
sbt_3174,25.29237274958149,163.8,15.441009004628503,5.843201773428071,0
rbt_609688,11.164397635247523,76.65,14.565424181666694,5.384760427665779,0
rbt_1638954,8.578488299017843,61.95,13.847438739334695,6.509388087236341,0
rbt_1607265,12.050394514193542,90.3,13.344844423248661,6.2808416290082185,0
rbt_606139,9.297262663946993,76.65,12.129501192363982,4.39916914581826,0
sbt_9361,25.829600513628783,216.3,11.94156288193656,5.62432134663052,0
rbt_623004,7.222440767784828,61.95,11.658500028708358,4.638397504726812,0
rbt_606121,6.961833045105879,61.95,11.2378257386697,5.28021183306229,0
sbt_11363,18.013528840840532,163.8,10.997270354603499,4.169849423761669,0
rbt_1605991,6.657622300544338,61.95,10.74676723251709,5.052761518821238,0
rbt_1607280,6.60496334524813,61.95,10.661764883370669,5.010700193547993,0
sbt_34393,13.288430109538076,128.1,10.373481740466882,6.820017350648123,0
rbt_606114,9.030066757615806,90.3,10.000073928699676,4.700680254240242,0
rbt_627337,8.790019336325216,90.3,9.734240682530693,4.5777290505721595,0
rbt_1621994,8.623776479449594,90.3,9.550140065835652,4.488160331445151,0
rbt_626678,8.42509380501489,90.3,9.330114955719703,4.3880578052574,0
rbt_635543,5.769864600553851,61.95,9.31374431082139,3.784875902377328,0
rbt_606150,5.734885711709733,61.95,9.257281213413613,4.349000106574869,0
rbt_1607272,8.253819702313304,90.3,9.140442638220714,4.301161771693105,0
smt_34713,26.113444481043764,286.65,9.109870741686295,5.581361642035102,0
smt_34700,26.113290973359454,286.65,9.109817189380589,5.581324012756711,0
smt_34701,26.112927335684954,286.65,9.10969033165357,5.581234892884972,0
smt_34715,26.11261636434337,286.65,9.10958184697135,5.581158701132495,0
smt_34702,26.112308350521605,286.65,9.109474394042074,5.58108325281524,0
smt_34703,26.11188642695512,286.65,9.109327202844977,5.580979932535669,0
smt_34704,26.111379186694993,286.65,9.10915024828013,5.580855766480912,0
smt_34716,26.11106214835737,286.65,9.10903964708089,5.58077818525307,0
smt_34705,26.11074338236099,286.65,9.10892844317495,5.580700201191885,0
smt_34717,26.11036353354878,286.65,9.108795930071091,5.580607299828696,0
smt_34706,26.109978926821285,286.65,9.10866175713284,5.580513263787426,0
smt_34707,26.109526067639397,286.65,9.108503773814547,5.58040257741149,0
smt_34708,26.109104120738102,286.65,9.108356574476925,5.580299482921518,0
smt_34709,26.10855957715254,286.65,9.108166606367536,5.580166486224719,0
smt_34718,26.10825621653552,286.65,9.108060776743597,5.580092420190575,0
smt_34710,26.107959545816467,286.65,9.107957280940683,5.580020005101621,0
smt_34719,26.107649252617975,286.65,9.107849032833762,5.5799442833796284,0
smt_34711,26.107339953285177,286.65,9.107741131444334,5.579868823088881,0
smt_34720,26.106987286444365,286.65,9.107618100974836,5.579782805382862,0
smt_34712,26.106661925662983,286.65,9.107504596428742,5.579703469506035,0
smt_34721,26.10642845514499,286.65,9.107423148489444,5.579646553201418,0
smt_34714,26.106418856366993,286.65,9.107419799883829,5.579644213178092,0
rbt_623007,5.640064213789738,61.95,9.104219876981013,4.277700433729012,0
sbt_22748,19.521268062757798,216.3,9.025089256938418,4.246968319510305,0
sbt_7427,19.521259911990075,216.3,9.025085488668552,4.2469644158689315,0
sbt_34383,11.547875688634875,128.1,9.014735119933547,5.310895410219776,0
sbt_34392,11.547872569801452,128.1,9.014732685247036,5.65223109559611,0
sbt_34384,11.532967520140119,128.1,9.003097205417737,4.34921349731026,0
rbt_1630759,6.825102477328269,76.65,8.904243284185608,4.18871268043105,0
rbt_606122,5.512208697177415,61.95,8.897834862271855,4.182359685831043,0
rbt_1229546,8.000843361723456,90.3,8.860291651963962,4.1671246624554525,0
rbt_1638606,5.45853286055122,61.95,8.811191058194058,4.143330692153834,0
rbt_605905,7.808944822071953,90.3,8.647779426436273,4.065426298115631,0
rbt_1607283,7.730399644711103,90.3,8.560796948738764,4.0275585499152475,0
smt_31417,27.88645354627334,327.6,8.512348457348393,5.239157624484641,0
smt_31416,27.886405524506856,327.6,8.512333798689516,5.239147316463117,0
smt_31411,27.886387226469477,327.6,8.51232821320802,5.239143388378316,0
smt_31412,27.886366517576143,327.6,8.51232189181201,5.239138943255381,0
smt_31413,27.886243725399964,327.6,8.512284409462747,5.239112587133886,0
smt_31414,27.886151448252843,327.6,8.512256241835422,5.239092782345837,0
smt_31415,27.885917624352384,327.6,8.512184867018432,5.239042604262094,0
smt_4387,27.885533093979188,327.6,8.512067489004634,5.238960103445972,0
smt_4863,27.88508939852295,327.6,8.51193205083118,5.238864937504833,0
smt_4693,27.884717153323948,327.6,8.511818422870556,5.238785120313316,0
smt_17964,27.884485289347033,327.6,8.511747646320828,5.230044146173589,0
smt_4591,27.88437696050202,327.6,8.511714578907819,5.238712194730038,0
smt_6826,27.884022707093397,327.6,8.511606442946702,5.229944437331171,0
smt_4627,27.884015927359478,327.6,8.511604373430853,5.238634821496503,0
smt_4527,27.883727145292067,327.6,8.511516222616626,5.2385729471045215,0
smt_7012,27.883488717512506,327.6,8.511443442464135,5.2298293784883425,0
smt_23134,27.88325767350599,327.6,8.511372916210618,5.238472385941235,0
smt_22791,27.883010193524,327.6,8.511297372870573,5.229726308745815,0
smt_18545,27.882836730902657,327.6,8.511244423352458,5.238382249031722,0
smt_7020,27.882451568149605,327.6,8.511126852304518,5.2296060313318815,0
smt_10381,27.882390744792893,327.6,8.511108285956317,5.238286779750855,0
smt_18806,27.88216543754791,327.6,8.51103951085101,5.238238561540836,0
smt_24122,27.882092110202432,327.6,8.51101712765642,5.238222870726973,0
smt_6842,27.882021712995662,327.6,8.510995638887564,5.229513512670693,0
smt_6830,27.88136958064846,327.6,8.510796575289516,5.229373208076976,0
smt_31407,27.88058520081025,327.6,8.51055714310447,5.22920453899263,0
smt_29390,27.88020519016175,327.6,8.510441144738017,5.229210770571513,0
smt_31408,27.88010481296847,327.6,8.51041050456913,5.237611142786785,0
smt_17776,27.87957478582749,327.6,8.510248713622556,5.229074092352811,0
smt_10747,27.878933257232003,327.6,8.510052886822955,5.2289350662897265,0
smt_18202,27.87837612863887,327.6,8.509882823149837,5.228814383020331,0
smt_17794,27.877859118655984,327.6,8.509725005694744,5.228702433671513,0
smt_29420,27.877539654290086,327.6,8.509627489099538,5.228633280303475,0
smt_22739,27.877352955540697,327.6,8.509570499249296,5.228592873620191,0
smt_17795,27.8767373449763,327.6,8.509382583936599,5.228459677625875,0
smt_29389,27.876050528704567,327.6,8.50917293306,5.228311145384097,0
smt_19163,27.87545868780173,327.6,8.50899227344375,5.228183212039407,0
smt_17961,27.875081468530734,327.6,8.508877127146134,5.2281017002838315,0
smt_29388,27.874646400715715,327.6,8.508744322562794,5.228007715991624,0
smt_17962,27.874111662898144,327.6,8.508581093680752,5.227892241383466,0
rbt_1107340,7.401309095190976,90.3,8.19635558714394,3.857335816636496,0
rbt_1626486,7.400757364921979,90.3,8.195744590168305,3.851480945346245,0
rbt_605822,7.400581070577854,90.3,8.195549358336494,3.8571233055670966,0
rbt_1607287,7.393992164320208,90.3,8.18825267366579,3.851779461640414,0
smt_6447,26.192211438617417,327.6,7.995180536818502,4.90031551498993,0
smt_6627,26.1918188251821,327.6,7.995060691447526,4.9002326528434486,0
smt_24630,26.191192874622903,327.6,7.99486961984826,4.900100598729259,0
smt_24629,26.19080662810507,327.6,7.99475171798079,4.900019147330977,0
smt_24628,26.190291651288618,327.6,7.994594521150371,4.899910589020595,0
smt_24627,26.18990930151047,327.6,7.99447780876388,4.899830018083671,0
smt_6957,26.189551614325527,327.6,7.994368624641492,4.89975466678341,0
smt_6431,26.189106453144404,327.6,7.994232739055068,4.899660918510369,0
smt_24626,26.18873597899372,327.6,7.994119651707483,4.899582924656612,0
smt_12228,26.18833316036301,327.6,7.9939966911974984,4.899498148083709,0
rbt_606132,4.945642036511333,61.95,7.983280123504977,3.7509664186848064,0
smt_6510,26.1376732884973,327.6,7.978532749846551,4.887934754278019,0
smt_19223,26.137130547946853,327.6,7.978367078127854,4.887819434981978,0
smt_22843,26.13666856095477,327.6,7.978226056457499,4.887721313750425,0
smt_6737,26.136265591414226,327.6,7.978103049882241,4.887635757170055,0
smt_24665,26.135740461154032,327.6,7.977942753710021,4.8875243059034625,0
smt_24635,26.135197929840473,327.6,7.97777714586095,4.887409211304285,0
smt_24637,26.13463652971017,327.6,7.977605778299808,4.887290167038604,0
smt_24636,26.134087504981366,327.6,7.977438188333749,4.887173799366432,0
smt_19174,26.133587612326657,327.6,7.977285595948308,4.887067890428323,0
smt_6686,26.132997864584596,327.6,7.977105575270023,4.886942999709162,0
smt_19173,26.132006076593925,327.6,7.976802831683126,4.8867331037185595,0
smt_19172,26.131670922666622,327.6,7.976700525844511,4.886662211971888,0
smt_6544,26.131305200005272,327.6,7.976588888890497,4.8865848763477375,0
smt_6535,26.130764612275375,327.6,7.976423874320932,4.886470605834946,0
smt_24634,26.12958277939931,327.6,7.976063119474758,4.886220962049587,0
smt_24633,26.12916101260284,327.6,7.975934375031392,4.886131928153038,0
smt_24632,26.128707291795052,327.6,7.975795876616316,4.886036182930378,0
smt_1873,26.12826071723649,327.6,7.975659559595997,4.885941980267891,0
smt_24631,26.127860550449448,327.6,7.975537408562102,4.885857596156107,0
smt_6527,26.12744479820492,327.6,7.975410500062551,4.8857699546130595,0
smt_24511,26.127179679722246,327.6,7.975329572564788,4.8866540207940155,0
smt_29446,26.126514183829176,327.6,7.9751264297402855,4.886509722506656,0
smt_32671,26.126075260076096,327.6,7.974992448130676,4.886414593810961,0
smt_6389,26.125590740270397,327.6,7.9748445483120864,4.886309621637237,0
smt_24510,26.125575858450546,327.6,7.974840005632035,4.886306398188088,0
smt_24509,26.125060698825656,327.6,7.974682752999285,4.886194834261947,0
smt_24508,26.124609111471294,327.6,7.974544905821518,4.886097075598086,0
smt_6426,26.124201999440178,327.6,7.974420634749749,4.88600897521572,0
smt_6420,26.12378691829449,327.6,7.974293931103323,4.885919179943391,0
smt_6140,26.1233383679268,327.6,7.974157010966667,4.885822177848981,0
smt_6653,26.122910511194657,327.6,7.9740264075685765,4.885729683487944,0
smt_6650,26.122488916162748,327.6,7.973897715556394,4.885638573846642,0
smt_29445,26.122075344375514,327.6,7.973771472642098,4.885549228097374,0
smt_24507,26.121649876551373,327.6,7.973641598458904,4.885457343374769,0
smt_24506,26.121225842284918,327.6,7.973512161869632,4.8853657995281425,0
smt_24505,26.120788248966768,327.6,7.973378586375691,4.8852713611931735,0
smt_24459,26.120412766846936,327.6,7.9732639703439965,4.88519035373205,0
smt_24458,26.119960481513793,327.6,7.973125910107995,4.885092809050575,0
smt_24457,26.119505349516153,327.6,7.972986980926786,4.884994686283302,0
smt_24456,26.119086823922995,327.6,7.97285922586172,4.884904487289515,0
smt_24455,26.118657151872544,327.6,7.972728068337162,4.884811917671423,0
smt_24454,26.118244918044496,327.6,7.972602233835316,4.884723135110307,0
smt_19165,26.11778972725625,327.6,7.9724632867082565,4.884625135167702,0
smt_17113,26.11731376923098,327.6,7.972318000375756,4.884522702598839,0
smt_6993,26.11626948034766,327.6,7.971999230875354,4.884298095280033,0
smt_24453,26.115635785285793,327.6,7.971805795264284,4.884161891292852,0
smt_24452,26.115145283827125,327.6,7.971656069544299,4.884056512550198,0
smt_24451,26.114715375138207,327.6,7.9715248397857765,4.883964185734027,0
smt_24450,26.114309259347362,327.6,7.9714008728166545,4.883876998064207,0
smt_6394,26.11386494790149,327.6,7.971265246612176,4.883781643023938,0
smt_24668,26.1064077663933,327.6,7.968988939680494,4.8821863209966345,0
smt_29393,26.1062336789537,327.6,7.968935799436416,4.88214919293422,0
smt_19218,26.10477043508617,327.6,7.968489143799197,4.881837329468831,0
smt_6502,26.10426120599251,327.6,7.968333701462916,4.881728883263797,0
smt_24667,26.103995079544266,327.6,7.968252466283353,4.881672226365175,0
smt_6683,26.103279511345722,327.6,7.96803403887232,4.881519946208762,0
smt_19220,26.10269885519687,327.6,7.967856793405638,4.88139644154916,0
smt_22844,26.102295011826453,327.6,7.967733520093543,4.8813105789561435,0
smt_6687,26.10185124292298,327.6,7.967598059500299,4.881216260048402,0
smt_24666,26.10151853728066,327.6,7.967496501001422,4.881145568851964,0
rbt_623433,7.160336824461465,90.3,7.929498144475598,3.731183258433561,0
rbt_626698,7.112847873141814,90.3,7.876907943678643,3.702298342169817,0
rbt_1607252,5.992463472536786,76.65,7.817956259017332,3.6768238111456646,0
rbt_637356,4.684047494801457,61.95,7.561012905248518,3.5543541456474563,0
rbt_631391,6.741431780346247,90.3,7.465594441136486,5.654118956118079,0
rbt_605855,5.5582617778940175,76.65,7.25148307618267,3.4111126269475798,0
rbt_1607255,6.492799743883236,90.3,7.190254422905023,3.38011816232393,0
rbt_636933,5.4051738653232695,76.65,7.051759772111245,3.3182961079401863,0
rbt_605910,4.246713864155774,61.95,6.855066770227237,3.2201784684835886,0
rbt_627343,6.148318885821682,90.3,6.80876953025657,3.1994813649316782,0
rbt_1607304,4.131444296605815,61.95,6.6689980574750845,3.1319314295611353,0
rbt_1607305,5.835299856683474,90.3,6.462126087135631,3.0382467372202737,0
rbt_1607285,3.965194488085797,61.95,6.400636784642126,3.005170989002553,0
rbt_606103,4.816528625766324,76.65,6.2837946846266455,2.953924998856612,0
rbt_3405846,4.800580096473974,76.65,6.262987731864284,2.9452629554334044,0
rbt_606109,3.824251972552658,61.95,6.1731266707871795,2.9001088977831326,0
rbt_605825,5.571656227147783,90.3,6.170161934825895,2.901520537245793,0
sbt_4580,10.020898099849363,163.8,6.117764407722444,2.878838073233864,0
rbt_1631852,5.515862697022356,90.3,6.108375079758977,2.871266157931132,0
rbt_605993,5.483989831687723,90.3,6.073078440407224,2.854204654737041,0
rbt_621999,5.443895723863862,90.3,6.028677435065185,2.8338927442768944,0
rbt_630753,5.4398956191063075,90.3,6.024247640206321,2.8331810630401044,0
sbt_28279,12.992210377901422,216.3,6.006569753999733,2.980495363733883,0
sbt_20214,12.992202946361195,216.3,6.006566318243733,2.9804956526642177,0
sbt_6049,9.829235239682408,163.8,6.000754114580224,2.8240349987739144,0
smt_6110,19.413914755785918,327.6,5.926103405307056,3.3736756320419143,0
rbt_607384,3.6017663925377006,61.95,5.813989334201293,2.731706975405839,0
rbt_1607278,4.4496189224829115,76.65,5.805112749488468,2.7278065284568958,0
rbt_1628760,5.2254216476428175,90.3,5.786734936481525,2.719040641772978,0
smt_24515,18.93369988397505,327.6,5.779517669101052,3.3469113298915754,0
smt_6552,18.933304618826035,327.6,5.779397014293662,3.3468160283652697,0
smt_6549,18.932782342811247,327.6,5.779237589380722,3.346690158138267,0
smt_23959,18.93232626906085,327.6,5.779098372729197,3.346580293775077,0
smt_22744,18.931779112627876,327.6,5.778931353061012,3.3464485509235646,0
smt_19175,18.931324026286347,327.6,5.778792437816345,3.3463390285077708,0
smt_19177,18.930805821818264,327.6,5.77863425574428,3.346214373459874,0
smt_19176,18.93026117759837,327.6,5.778468002929905,3.346083424424339,0
smt_19164,18.930024027289814,327.6,5.778395612725829,3.346026427403969,0
smt_32311,18.929615949320286,327.6,5.778271046801064,3.3459283795599983,0
smt_39119,18.929126456957636,327.6,5.778121629107947,3.345810820977281,0
smt_32312,18.929103473409263,327.6,5.778114613372791,3.3458053028888695,0
smt_32310,18.929084733142943,327.6,5.778108892900776,3.345800802716655,0
smt_32309,18.928631766614874,327.6,5.777970624729814,3.3456920692596177,0
smt_32314,18.92842467041573,327.6,5.77790740855181,3.345642371700721,0
smt_32313,18.928408942730762,327.6,5.777902607671172,3.3456385980484904,0
smt_6802,18.92822861100109,327.6,5.777847561355643,3.405561042580176,0
smt_24514,18.92766292888249,327.6,5.777674886716266,3.4054260028756382,0
smt_24513,18.927075425584487,327.6,5.777495551155216,3.405285828494266,0
smt_19166,18.926614404734927,327.6,5.7773548244001605,3.405175885195879,0
smt_6414,18.92616436575436,327.6,5.777217449863968,3.4050686059961524,0
smt_18852,18.925708873645487,327.6,5.777078410758695,3.4049600722893536,0
smt_6403,18.92520345196181,327.6,5.776924130635472,3.404839694997516,0
smt_1832,18.924764061117475,327.6,5.776790006446116,3.4047350901270144,0
smt_1831,18.92433597611435,327.6,5.7766593333682374,3.4046332177676764,0
smt_1829,18.923495480625782,327.6,5.776402771863792,3.4044333207191957,0
smt_1828,18.922887028105627,327.6,5.776217041546284,3.404288708281975,0
rbt_3433894,5.1947713577191905,90.3,5.752792201239414,2.70477571961078,0
smt_6350,18.828080188622497,327.6,5.747277224854241,3.329771420529837,0
smt_24517,18.82585783483903,327.6,5.746598850683465,3.3294576390526203,0
smt_24520,18.825176682941716,327.6,5.7463909288588875,3.329293298469642,0
smt_19116,18.824855035902903,327.6,5.746292746002107,3.329215732064642,0
rbt_1607357,4.382652197028683,76.65,5.717745853918699,2.6874211805392316,0
rbt_605806,4.787489637329925,90.3,5.3017603957142025,2.491617908808593,0
rbt_622714,4.714605669234023,90.3,5.221047252750856,2.4552770233814205,0
smt_6066,8.460838034548365,163.8,5.165346785438562,2.9988313576945456,0
smt_6062,8.460411026413189,163.8,5.165086096711348,2.9987201129014607,0
smt_6719,8.459939358083904,163.8,5.164798142908366,2.9985977231082015,0
smt_6176,8.45940742126731,163.8,5.164473395157088,2.9984589525482694,0
smt_6144,8.45891042263493,163.8,5.164169977188601,2.998330434167322,0
smt_6227,8.458383343918328,163.8,5.163848195310334,2.9981939734477496,0
smt_19063,8.457873898516112,163.8,5.163537178581265,2.998062647451299,0
smt_6092,8.457368779572281,163.8,5.16322880315768,2.9979320247521666,0
smt_29474,8.456931028049894,163.8,5.1629615555860155,2.9978205836773975,0
smt_29473,8.4564408345407,163.8,5.162662292149389,2.9976954001109744,0
smt_19115,8.455950270655942,163.8,5.162362802598254,2.9975690500349965,0
smt_24512,8.45556337038359,163.8,5.162126599745781,2.99746560170405,0
rbt_1607258,3.9410769065600384,76.65,5.141652846131818,2.4181421689174316,0
smt_37840,8.351624464391607,163.8,5.09867183418291,2.9701808317754264,0
smt_6474,8.351275833847662,163.8,5.098458995022993,2.9700902285542115,0
smt_19061,8.350843850657265,163.8,5.098195269021529,2.969977161687371,0
smt_29476,8.350421695695992,163.8,5.097937543159945,2.9698679831919943,0
smt_6594,8.349906059659741,163.8,5.097622747045018,2.9697339346460208,0
smt_29475,8.349385971411191,163.8,5.097305232851765,2.9695983535625547,0
smt_19011,8.348937525750332,163.8,5.097031456502034,2.969483166491125,0
smt_19014,8.34842330894509,163.8,5.096717526828504,2.96935062808886,0
rbt_627328,4.601433787159128,90.3,5.095718479688957,2.398582708269213,0
sbt_5830,8.268490227994977,163.8,5.0479183321092655,2.375365697474414,0
rbt_621168,3.8295687253099087,76.65,4.996175766875288,2.348462354316095,0
rbt_605815,4.493841720167517,90.3,4.976568903839997,2.34043032542499,0
rbt_1107330,4.492568105348491,90.3,4.975158477683822,2.341664387384156,0
rbt_621171,3.074812032985608,61.95,4.963376970113976,2.3318580535865534,0
rbt_3422597,4.473575501646022,90.3,4.954125693960157,2.330112135267223,0
rbt_606127,3.052092215507335,61.95,4.926702527049774,2.314667305097883,0
rbt_635966,3.0351655934372306,61.95,4.8993794890027935,2.3020725204350003,0
rbt_1124041,4.413831857436161,90.3,4.887964404691209,2.299049759442154,0
rbt_605921,3.6374036181255613,76.65,4.745471126060745,2.230780497813901,0
sbt_14007,7.730399362715559,163.8,4.719413530351379,2.220320558819556,0
sbt_25907,10.170345426341918,216.3,4.701962749117854,1.8010897204486087,0
sbt_21361,10.170338727132357,216.3,4.70195965193359,1.801089820322243,0
sbt_20771,10.17033337761811,216.3,4.701957178741614,1.8010919660592508,0
rbt_627336,4.222416547979872,90.3,4.675987317807167,2.1971580784928206,0
rbt_1627321,4.206512566466255,90.3,4.6583749351785775,2.1898683543507618,0
rbt_1607355,4.188721042732303,90.3,4.638672251087822,2.180405351392254,0
rbt_605902,2.873217071073222,61.95,4.637961373806653,2.1795132804490334,0
sbt_35173,5.83529946190888,128.1,4.555268900787572,2.1417145937916904,0
rbt_1607358,3.4877251451512716,76.65,4.550195884085155,2.139060367149124,0
sbt_21952,9.829234414456451,216.3,4.544260015929936,2.1385891326113513,0
sbt_20840,7.400581059539035,163.8,4.518059254907835,2.126362794918065,0
sbt_6273,7.393991861757661,163.8,4.514036545639597,2.1234166899500453,0
smt_6536,12.855717210268242,286.65,4.484813260166839,2.6353943153668538,0
smt_6703,12.855119123513438,286.65,4.48460461312173,2.635249053124985,0
smt_6514,12.854532533675961,286.65,4.484399976862362,2.6351067346032093,0
smt_6984,12.85444298635755,286.65,4.484368737609472,2.635085021699236,0
smt_5854,12.853531766545698,286.65,4.484050851751508,2.6348642748803255,0
smt_5855,12.852848910415393,286.65,4.483812632274688,2.6346990879566845,0
smt_5657,12.852289131297102,286.65,4.483617349135567,2.6345638263191993,0
smt_21743,12.8516988870453,286.65,4.483411438006384,2.634421351918077,0
smt_22741,12.851093998346157,286.65,4.483200418052035,2.63427550116468,0
smt_6098,12.850613359449286,286.65,4.483032743572052,2.6341597240435286,0
smt_19120,12.850055905191217,286.65,4.482838271477837,2.6340255706488085,0
smt_22740,12.849504074474847,286.65,4.482645761198273,2.6338929052244486,0
smt_22738,12.83347460062009,286.65,4.477053759155796,2.6280608460246864,0
smt_6754,12.832972441706548,286.65,4.476878577256777,2.6279389899916024,0
smt_6567,12.832461900467017,286.65,4.4767004711205365,2.627815212640959,0
smt_6746,12.831954310325463,286.65,4.476523394496935,2.6276922636862503,0
smt_6812,12.831455408684521,286.65,4.476349348921864,2.6275715290483768,0
rbt_3405838,4.0171361977744064,90.3,4.448655811488822,2.093598503976813,0
rbt_622273,2.5570900794847815,57.75,4.427861609497457,2.084419306682881,0
rbt_1107341,2.7390713280451866,61.95,4.421422644140737,2.0801684570210774,0
rbt_638617,2.7283431028198555,61.95,4.4041050892975875,2.071889887595058,0
rbt_605828,3.968698212830563,90.3,4.395014632149017,2.068509214606679,0
rbt_1607292,3.893275866465234,90.3,4.311490439053415,2.0273170994537115,0
rbt_1626490,3.8514709738856303,90.3,4.265194876949757,3.230569410758436,0
rbt_1635060,2.642098755035614,61.95,4.264889031534485,2.0056732669631607,0
sbt_37156,6.961832832595972,163.8,4.250203194503035,1.9970030621935597,0
rbt_605867,3.829356118986947,90.3,4.240704450705368,1.9942136372511632,0
sbt_4615,6.866354683218481,163.8,4.191913726018608,1.9736497729823068,0
sbt_3373,6.8663535024081,163.8,4.19191300513315,1.9736489843862142,0
sbt_20793,6.86635241652073,163.8,4.191912342198247,1.9736482660039787,0
sbt_4010,6.866350729520539,163.8,4.191911312283601,1.973647162195008,0
sbt_28804,6.866349193932489,163.8,4.1919103748061595,1.9736461696613334,0
rbt_605812,3.739119311396831,90.3,4.140774431225727,1.9489985793068911,0
rbt_632613,3.736034211181309,90.3,4.137357930433343,1.9462304378781867,0
rbt_622713,3.717605085585308,90.3,4.116949153472102,1.9346433017236035,0
rbt_606120,2.5385880591903884,61.95,4.097801548329925,1.9247984668722233,0
sbt_26269,8.790018972587527,216.3,4.063809048815315,1.9110905951246515,0
smt_7052,6.581225198092915,163.8,4.017842001277725,2.155137876237047,0
rbt_1132019,3.6194594177001447,90.3,4.00826070620171,1.8847692062074308,0
rbt_605863,3.6018925191062037,90.3,3.9888067764188304,1.876140448100499,0
rbt_634166,3.027199572699392,76.65,3.949379742595423,1.8559381590738424,0
rbt_1138614,2.430184066918736,61.95,3.922815281547596,1.844591636529468,0
sbt_4118,11.164405132472579,286.65,3.894786371000377,1.4398814695040152,0
rbt_605803,3.498264443354046,90.3,3.8740470026069174,1.821247478047365,0
smt_37837,8.352210612676515,216.3,3.8614011154306587,2.2493799636492917,0
smt_37841,8.3518460729902,216.3,3.8612325811327786,2.2493063385015652,0
rbt_605834,3.4726033429293333,90.3,3.84562939416316,1.8106200615001173,0
rbt_605904,2.376657864017432,61.95,3.8364130169772914,1.8012917333569043,0
smt_29484,6.281651148528983,163.8,3.834951861128805,1.899670104762586,0
smt_22951,6.281637735139307,163.8,3.8349436722462187,1.899661839480985,0
smt_19381,6.280308721475024,163.8,3.8341323085928107,1.8988439806483655,0
smt_18804,6.279616759311285,163.8,3.8337098652694044,1.8984189966483551,0
smt_19380,6.278823731443784,163.8,3.833225721272151,1.8979326525980404,0
smt_5349,6.278188310849084,163.8,3.8328377966111624,1.8975435155890314,0
smt_18803,6.277542880389342,163.8,3.8324437609214543,1.8971487515990548,0
smt_13454,6.2768837957833234,163.8,3.8320413893671077,1.8967461613174663,0
smt_19377,6.2761002819206695,163.8,3.8315630536756218,1.8962682581687267,0
smt_29411,6.27511516879726,163.8,3.8309616415123684,1.895668461846909,0
smt_8954,6.274509864281024,163.8,3.8305921027356673,1.8953005105507585,0
smt_5584,6.273804215673022,163.8,3.8301613038296836,1.8948721359577319,0
rbt_605810,2.93103575749308,76.65,3.82392140573135,1.7973336830816298,0
rbt_605864,3.443798140912148,90.3,3.813729945639145,1.7938194628943818,0
rbt_609682,2.9030179162097745,76.65,3.787368449066894,1.781897470344077,0
rbt_622703,2.3295435413522783,61.95,3.7603608415694567,2.8486535471061347,0
rbt_605835,3.393752187706747,90.3,3.758308070550108,1.7694897809168812,0
sbt_14006,6.14491728473594,163.8,3.7514757538070453,1.7642906153110174,0
smt_25186,6.062849186351938,163.8,3.7013731296409875,2.0007388306711644,0
sbt_27416,8.000843234878609,216.3,3.698956650429315,1.73967334219212,0
sbt_15213,8.000843179548927,216.3,3.698956624849249,1.7396733302363094,0
rbt_606128,2.8202074665521613,76.65,3.6793313327490687,1.729176637230089,0
rbt_1607257,3.292429451295514,90.3,3.646101274967347,1.7139849042544582,0
rbt_607385,3.2856880711670593,90.3,3.638635737726533,1.7115133852504743,0
rbt_3405845,3.2751267113947655,90.3,3.6269398797284227,1.7073968518310154,0
rbt_633056,3.2709372369774656,90.3,3.6223003731754884,1.7031868460625839,0
rbt_606141,3.267039007362358,90.3,3.6179833968575394,1.7033402275954694,0
rbt_623015,3.2586566425664496,90.3,3.608700600848781,2.733435772648431,0
sbt_34389,4.601432544961946,128.1,3.592062876629154,2.7643940195390075,0
smt_37855,7.71206981123577,216.3,3.5654506755597644,1.9458470515596311,0
smt_37854,7.711688172119357,216.3,3.5652742358388148,1.9458019228197265,0
smt_37853,7.711336944007964,216.3,3.5651118557595765,1.9457623779653088,0
smt_37852,7.710976397776049,216.3,3.564945167718932,1.9457205295318423,0
smt_37851,7.710636774351534,216.3,3.564788152728402,1.9456829233559738,0
smt_37850,7.710283485117763,216.3,3.5646248197493122,1.9456432521884153,0
smt_37849,7.709931605618668,216.3,3.5644621385199575,1.9456046413742023,0
smt_37848,7.709567122904791,216.3,3.5642936305616235,1.945564159616714,0
smt_37847,7.70920397644611,216.3,3.564125740381928,1.9455186950058474,0
smt_37846,7.708948718753953,216.3,3.5640077294285493,1.9454953591547517,0
smt_37845,7.708600276080954,216.3,3.5638466371155584,1.945458463941109,0
smt_38000,7.708228834510929,216.3,3.5636749119329307,1.945415204632117,0
smt_38002,7.707914236744652,216.3,3.5635294668260062,1.9453653644009448,0
smt_38001,7.707906078863763,216.3,3.563525695267574,1.9453647702028836,0
smt_37843,7.707893693047257,216.3,3.5635199690463506,1.9453804347449628,0
smt_37842,7.707551043212768,216.3,3.5633615548833877,1.9453350155357905,0
smt_37838,7.7073739465822895,216.3,3.5632796794185335,1.9453216280215084,0
rbt_605982,3.192062255957237,90.3,3.534952664404471,1.6633140547667618,0
rbt_1606000,3.1910096279154088,90.3,3.5337869633614716,1.6614945658130333,0
rbt_1629639,3.177598810657922,90.3,3.5189355599755503,1.653349189550427,0
sbt_3952,5.743460621968741,163.8,3.5063862160981327,1.6502828223039285,0
sbt_4120,5.743459222436835,163.8,3.5063853616830487,1.6502819104611979,0
sbt_20855,5.743457855980749,163.8,3.5063845274607743,1.650281027858827,0
sbt_20854,5.74345655632543,163.8,3.506383734020409,1.650280195142536,0
rbt_635963,2.171582764845278,61.95,3.5053797656905217,1.6464980107731824,0
rbt_626481,3.1229562498834547,90.3,3.458423311055875,1.6256913125451418,0
rbt_1607306,2.6333483174940504,76.65,3.435549011733921,1.6154830521774943,0
rbt_605901,3.0927280276830125,90.3,3.4249479819302464,1.6093664742834106,0
rbt_605820,2.620471904285876,76.65,3.4187500382072744,1.6080939071919607,0
rbt_3405847,3.0854605881042843,90.3,3.416899876084479,1.6084291611671908,0
sbt_34000,7.347058535898604,216.3,3.3966983522416108,1.5966859991120146,0
rbt_1607289,2.6033744961098817,76.65,3.3964442219307003,1.5961270552851696,0
smt_6512,9.665499528901139,286.65,3.371881921821433,1.9936811286919767,0
smt_6425,9.665098170641656,286.65,3.3717419049857513,1.9935936932088143,0
smt_6930,9.664483286256234,286.65,3.371527397961359,1.993459944776683,0
sbt_20828,5.512207440615879,163.8,3.3652060077020014,1.581789099932131,0
sbt_37537,7.222471830028432,216.3,3.3390993204014943,1.3284742582207005,0
sbt_37545,7.222463203637174,216.3,3.33909533224095,1.328474840453661,0
sbt_37546,7.222446520681253,216.3,3.339087619362577,1.328473750506126,0
sbt_37539,7.213935002161428,216.3,3.335152566879994,1.904031687783396,0
sbt_37538,7.213929483847697,216.3,3.3351500156484963,1.9040322092633755,0
smt_15243,5.4589453837488415,163.8,3.332689489468157,1.9823621213271447,0
smt_26472,5.458484730496548,163.8,3.332408260376403,1.9822546838036628,0
smt_14780,5.457962621666378,163.8,3.3320895126168364,1.9821321174533841,0
smt_14754,5.45744163184272,163.8,3.3317714480114278,1.9820104626551467,0
smt_14729,5.456923241463249,163.8,3.331454970368284,1.9864131050966771,0
smt_21229,5.456396997701908,163.8,3.3311336982307127,1.9862922045328288,0
smt_26474,5.455901101310685,163.8,3.330830953181126,1.9861781732676995,0
smt_22453,5.455463718898874,163.8,3.3305639309516932,1.9860814124713435,0
smt_14544,5.454938342215305,163.8,3.330243188165632,1.9859633229262297,0
smt_14113,5.4544136244293195,163.8,3.329922847636947,1.98584740233988,0
smt_22508,5.453837953470204,163.8,3.3295714001649594,1.985717845157058,0
smt_14452,5.453330433063582,163.8,3.3292615586468752,1.9856036675718196,0
smt_30311,5.45290454203954,163.8,3.3290015519166904,1.9855128997822271,0
smt_26478,5.452379325187326,163.8,3.3286809067077683,1.9853956925457623,0
rbt_1609690,2.9937706525285943,90.3,3.315360634029451,1.5578386558865003,0
smt_22686,9.463289961747167,286.65,3.3013395994233967,2.04675173669994,0
smt_6239,9.462815808160085,286.65,3.3011741873923204,2.046645623097191,0
smt_23961,9.462352950419726,286.65,3.3010127160019977,2.0465421730987208,0
smt_29407,9.46188207546513,286.65,3.300848447746426,2.0464370689509788,0
smt_6278,9.46146030781107,286.65,3.3007013109405445,2.0463430441247357,0
smt_6630,9.460968515537328,286.65,3.300529745521482,2.0462335498512085,0
smt_19070,9.460474340011826,286.65,3.3003573486871893,2.0461236782655834,0
smt_6639,9.459980415943374,286.65,3.300185039575571,2.0460140164022955,0
smt_19117,9.459519327705602,286.65,3.300024185489483,2.045911783835929,0
smt_21514,9.454223213217759,286.65,3.29817659627342,2.04011587594277,0
smt_5615,9.453746666767849,286.65,3.2980103494742194,2.0400076207149076,0
smt_18742,9.453375513855903,286.65,3.297880870000315,2.03992340430372,0
smt_6270,9.452792554292637,286.65,3.2976775001893035,2.039791299589407,0
smt_5967,9.452339099648793,286.65,3.2975193091396453,2.039688687312834,0
smt_5772,9.451804138056396,286.65,3.297332683780358,2.0395677945832467,0
smt_6158,9.451275002172125,286.65,3.297148090762995,2.039448392996268,0
smt_6263,9.450816710497513,286.65,3.2969882122789165,2.039345118312314,0
smt_6384,9.450248305186998,286.65,3.296789919828013,2.0392172114697344,0
smt_22684,9.449692085508108,286.65,3.296595878425993,2.039092241775331,0
smt_22685,9.449238214010405,286.65,3.2964375419537437,2.0389904105391516,0
smt_29447,9.448762323324784,286.65,3.2962715239228273,2.0388837774920567,0
smt_19065,9.44825246443757,286.65,3.296093655830305,2.0387696906999566,0
smt_24385,9.447676303249295,286.65,3.2958926576833405,2.038640964421518,0
smt_29448,9.445518507328638,286.65,3.295139894410828,2.02537991572434,0
smt_6824,9.44505456951307,286.65,3.2949780462281772,2.0252722076692113,0
smt_6855,9.444557062426407,286.65,3.294804487153814,2.0251568524073416,0
smt_19062,9.44397601071211,286.65,3.294601782910208,2.0250223178952527,0
smt_7054,9.443514118923408,286.65,3.2944406484993576,2.024915521023208,0
smt_6446,9.443042148691086,286.65,3.2942759981479464,2.024806529321894,0
smt_39006,9.442558543324104,286.65,3.294107288792641,2.024694992988889,0
smt_39008,9.442121512552472,286.65,3.293954827333847,2.024594321960106,0
smt_39007,9.44210309212193,286.65,3.2939484012286524,2.0245900815095883,0
smt_6122,9.441683645657639,286.65,3.2938020741872105,2.0244935772125996,0
smt_18741,9.441154283252347,286.65,3.2936174021462925,2.0243719392951633,0
smt_5938,9.4406637955074,286.65,3.2934462918218737,2.024259389027804,0
smt_5946,9.440097351903797,286.65,3.2932486837271226,2.0241295951941627,0
smt_37856,7.119601077242968,216.3,3.2915400264646175,1.829430238797842,0
sbt_34382,4.214422756344353,128.1,3.2899475069042574,1.5461075223133571,0
rbt_1625170,2.9692047736744875,90.3,3.2881558955420687,1.545157211760537,0
rbt_605821,4.198452049454601,128.1,3.2774801322830607,1.5399070195860238,0
sbt_35105,4.188720682352952,128.1,3.2698834366533585,1.5370067597445365,0
smt_856,5.321879111631954,163.8,3.249010446661755,1.9419437399388142,0
smt_15622,5.321301973646621,163.8,3.248658103569366,1.9418048086936661,0
smt_23196,5.32098119194211,163.8,3.248462266142924,1.9417320982512922,0
smt_15581,5.320637274869238,163.8,3.248252304559974,1.9416545694311036,0
smt_15568,5.320264971898554,163.8,3.2480250133690802,1.9415698945428916,0
rbt_605988,2.9300716211680187,90.3,3.244819071060929,1.5272705252233403,0
rbt_605804,1.9869342195171689,61.95,3.207319159834009,1.507359914287987,0
smt_23147,5.224964360310587,163.8,3.1898439318135448,1.9108973953799477,0
smt_16038,5.224649370911525,163.8,3.1896516305931164,1.9108408524951928,0
sbt_6048,5.193020108571788,163.8,3.170341946625023,1.4920862233718513,0
smt_13546,5.18202754050059,163.8,3.163630977106587,1.892368861607218,0
smt_21225,5.181717408598294,163.8,3.1634416413908997,1.8922963774309796,0
rbt_605829,2.8564219151459533,90.3,3.1632579348238687,1.4871720622099527,0
smt_13930,5.181159429791739,163.8,3.1631009949888518,1.8921578265723467,0
smt_21226,5.180605452479542,163.8,3.1627627915015513,1.8920184219343055,0
smt_13280,5.180181599253473,163.8,3.1625040288482738,1.891913988291001,0
smt_14437,5.179778079352706,163.8,3.162257679702507,1.8918155405750554,0
smt_13955,5.179371208218687,163.8,3.1620092846267935,1.8917168106798972,0
smt_26469,5.17895899270185,163.8,3.161757626802106,1.8916159397187968,0
smt_20808,5.178598722084346,163.8,3.1615376813701745,1.8915296559161854,0
smt_23095,5.178221454221287,163.8,3.1613073591094545,1.8914346374167383,0
smt_20807,5.178031196509435,163.8,3.1611912066602166,1.8913944753272087,0
smt_13717,5.177630064022589,163.8,3.1609463150321053,1.8912969731505413,0
sbt_15045,6.825099810506068,216.3,3.155385950303314,1.4843483644500308,0
smt_37925,6.808400108880527,216.3,3.1476653300418524,1.7587349105772263,0
smt_37924,6.80822857267715,216.3,3.1475860252783865,1.7587310193789272,0
smt_37923,6.807861491718499,216.3,3.147416316097318,1.7586977929962309,0
smt_37864,6.807499652289686,216.3,3.147249030184783,1.7586541110226994,0
smt_37863,6.807328233668821,216.3,3.147169779782164,1.7586388894051483,0
smt_37862,6.8071570002748745,216.3,3.147090615013812,1.7586305201638155,0
smt_37861,6.8068741748969135,216.3,3.1469598589444816,1.7586093127079492,0
smt_37860,6.80653179790367,216.3,3.146801570921715,1.7585806058160076,0
smt_37859,6.806170780181723,216.3,3.146634664901397,1.7585436633719045,0
smt_37858,6.80590180087143,216.3,3.14651031015785,1.7585269356332713,0
smt_37831,6.805529893786094,216.3,3.1463383697577876,1.7584829707467933,0
smt_14797,5.141142003958303,163.8,3.1386703320868765,1.8735440528137577,0
smt_23041,5.140734155127551,163.8,3.1384213401267096,1.873441969060331,0
smt_14823,5.140320825121651,163.8,3.1381690019057698,1.8733390011744486,0
smt_37898,6.7875065239201176,216.3,3.138005790069402,1.7514521047183793,0
smt_13752,5.139901493568313,163.8,3.137912999736455,1.8732262724841806,0
smt_37897,6.787098101445259,216.3,3.1378169678433925,1.751401159642481,0
smt_37896,6.786743240357725,216.3,3.1376529081635343,1.751360030713314,0
smt_37895,6.78636261205019,216.3,3.1374769357606054,1.7513147962893614,0
smt_37894,6.785988077371063,216.3,3.137303780569146,1.751269934969887,0
smt_37893,6.7856338405456125,216.3,3.137140009498665,1.7512291671222038,0
smt_37892,6.785264080528757,216.3,3.136969061733128,1.7511856243423898,0
smt_37891,6.784907443647184,216.3,3.1368041810666596,1.751145356023291,0
smt_37890,6.784528214603948,216.3,3.1366288555727913,1.7511075208313747,0
smt_37889,6.78401580889998,216.3,3.1363919597318444,1.7510379578766064,0
smt_37888,6.783758312049762,216.3,3.136272913569007,1.7510082187352103,0
smt_37887,6.783511799167865,216.3,3.136158945523747,1.7509862880416136,0
smt_37886,6.783130328846127,216.3,3.135982583840095,1.7509427592997537,0
smt_37885,6.782762784067002,216.3,3.1358126602251515,1.7509018276400987,0
smt_37884,6.782391493731727,216.3,3.1356410049615007,1.7508606097256019,0
smt_37883,6.782018966272369,216.3,3.135468777749592,1.7508199606078403,0
smt_37882,6.781635255808997,216.3,3.135291380401755,1.7507772325011508,0
smt_37881,6.7812642556151514,216.3,3.1351198592765375,1.7507369961919181,0
smt_37880,6.780887732912019,216.3,3.134945784980129,1.75069508151787,0
smt_37879,6.780533778751346,216.3,3.1347821445914685,1.7506586463865876,0
smt_37878,6.780143517994348,216.3,3.1346017189063096,1.7506157155547024,0
smt_37877,6.7797764262194224,216.3,3.134432004724652,1.750577283993046,0
smt_37876,6.779395880855831,216.3,3.1342560706684375,1.7505371122243865,0
smt_37875,6.7790135993366665,216.3,3.134079333951302,1.7504970113692648,0
smt_37874,6.778629804266987,216.3,3.1339018974882045,1.750456389954335,0
smt_37873,6.778257042292312,216.3,3.1337295618549756,1.750416372932574,0
smt_37945,6.77791100281932,216.3,3.1335695805914563,1.7503756321167352,0
smt_37944,6.7776643237798755,216.3,3.1334555357280975,1.75035246172415,0
smt_37943,6.777375494916919,216.3,3.1333220041224776,1.7503255864985634,0
smt_37942,6.777035808120534,216.3,3.133164959833811,1.7502909577148522,0
smt_37941,6.7766989876671495,216.3,3.1330092407152796,1.7502568130789478,0
smt_37940,6.776365289175285,216.3,3.1328549649446527,1.7502237236912024,0
smt_37939,6.776024558731776,216.3,3.132697438156161,1.7501901552171306,0
smt_37938,6.775676636955788,216.3,3.1325365866647195,1.7501559289715258,0
smt_37937,6.775324656961566,216.3,3.1323738589743715,1.7501209850909076,0
smt_37936,6.774978712433953,216.3,3.1322139216060805,1.7500871918100405,0
smt_37935,6.774632606529071,216.3,3.1320539096297138,1.7500517779113602,0
smt_37934,6.7743195384967985,216.3,3.1319091717507157,1.750023178983521,0
smt_37933,6.773977410127402,216.3,3.131750998671938,1.7499904944772287,0
smt_37932,6.773633346980605,216.3,3.1315919311052265,1.749957744229398,0
smt_23225,5.127232912210703,163.8,3.1301788230834573,1.866529794290465,0
smt_21220,5.126770614671512,163.8,3.1298965901535483,1.8664103235676137,0
smt_14845,5.126287627293209,163.8,3.12960172606423,1.8662861089985248,0
smt_26425,5.125787575356703,163.8,3.129296444051711,1.866157868331874,0
smt_20810,5.125290659823745,163.8,3.1289930768154726,1.8660297862102313,0
smt_26429,5.1248721804825745,163.8,3.1287375949222063,1.8659236077859862,0
smt_26430,5.124457112825114,163.8,3.128484195863928,1.8658188071506763,0
rbt_1607316,2.8245914476739995,90.3,3.128008247700996,2.370392261876434,0
rbt_1107342,1.9375811895860526,61.95,3.127653251954887,1.47067491126345,0
smt_21222,5.111365448042113,163.8,3.1204917265214362,1.8600868120680312,0
smt_14301,5.1110269466221,163.8,3.120285071197863,1.8599972177284734,0
smt_23277,5.1105992686653705,163.8,3.120023973544182,1.8598827350256215,0
smt_26427,5.110196980323225,163.8,3.1197783762657045,1.859776126878762,0
smt_20812,5.1097729910977545,163.8,3.1195195305847094,1.8596639708282492,0
smt_15154,5.10934805632917,163.8,3.1192601076490662,1.8595517056625785,0
smt_14674,5.108947304031487,163.8,3.1190154481266705,1.8594478381638095,0
smt_37986,6.697588744101998,216.3,3.0964349256134986,1.7720552769044087,0
smt_37987,6.697325632031499,216.3,3.096313283417244,1.7720174940492377,0
smt_37993,6.696989474503804,216.3,3.0961578707830806,1.7719635209494407,0
smt_37920,6.696821404741918,216.3,3.0960801686277937,1.7719439452203927,0
smt_37919,6.696413439915974,216.3,3.0958915579824198,1.7718832608671207,0
smt_37918,6.6960129573532,216.3,3.0957064065433193,1.7718237083771846,0
smt_37917,6.695629839379919,216.3,3.095529283116005,1.7717676456219735,0
smt_37916,6.69523509016813,216.3,3.0953467823246092,1.7717097159411381,0
smt_37915,6.694845697946404,216.3,3.095166758181416,1.7716504792555066,0
smt_37914,6.694556425723359,216.3,3.095033021601183,1.7716106674780987,0
smt_37913,6.694177694940092,216.3,3.094857926463288,1.7715563654575703,0
smt_37912,6.693779139023326,216.3,3.094673665752809,1.7714986309304817,0
smt_40685,6.693393127267156,216.3,3.094495204469328,1.7714427015896126,0
smt_37911,6.693027476785362,216.3,3.094326156627537,1.771381500326249,0
smt_37910,6.693006043842946,216.3,3.0943162477313666,1.7713881677168422,0
smt_37909,6.69261361357315,216.3,3.094134819035206,1.771332180245028,0
smt_37908,6.6922289086716695,216.3,3.093956961937896,1.7712782174438395,0
smt_40683,6.691826630564806,216.3,3.093770980381325,1.7712207796418158,0
smt_37906,6.691452701141398,216.3,3.0935981050122043,1.771168720759657,0
smt_37905,6.691065233052492,216.3,3.0934189704357338,1.7711138818918528,0
smt_37904,6.690704508076108,216.3,3.0932521997577935,1.7710637757908418,0
smt_37903,6.69034269819376,216.3,3.0930849275052053,1.7710111756251425,0
sbt_22669,6.6576218017962345,216.3,3.0779573748480047,1.447149898841988,0
rbt_3405987,1.906030341157901,61.95,3.0767237145405986,1.4485372241039405,0
smt_37963,6.64097084330046,216.3,3.0702592895517613,1.7487302280488495,0
smt_37983,6.640471245195903,216.3,3.0700283149310694,1.7486488418777189,0
smt_37984,6.639963459645904,216.3,3.0697935550836357,1.7485662144473262,0
smt_37985,6.639463910601445,216.3,3.06956260314445,1.7484853105654274,0
smt_37947,6.638972487083484,216.3,3.0693354078055863,1.7484054419000206,0
smt_37948,6.638522963851622,216.3,3.0691275838426355,1.7483336802515386,0
rbt_1132012,2.767533566754227,90.3,3.0648212256414475,1.4404855007219581,0
rbt_1607268,2.3467138130822267,76.65,3.061596625025736,1.4388251201942577,0
sbt_35588,6.604959967232283,216.3,3.0536107106945365,1.4351018659754669,0
rbt_605823,2.7546482074757277,90.3,3.050551724779322,1.4346458215669486,0
smt_29426,6.581946900628242,216.3,3.0429712901656223,1.6323730389901856,0
sbt_21281,4.945640654090654,163.8,3.0193166386389825,1.4186338827845513,0
rbt_605989,2.691853251178191,90.3,2.981011352356801,1.4011022129652895,0
rbt_1121173,2.6866498396630942,90.3,2.975248991874966,1.3995601121570225,0
rbt_605807,2.6796074578183786,90.3,2.967450119400198,1.396250238187018,0
rbt_606130,2.257635290497697,76.65,2.9453819836891024,1.3840190400797514,0
sbt_3491,4.816525399398241,163.8,2.940491696824323,1.3822833992211454,0
rbt_637399,1.8108999442921268,61.95,2.9231637518839815,1.37367465436773,0
sbt_21191,4.778057629173024,163.8,2.917007099617231,1.3715859980419065,0
sbt_26310,4.714605263735498,163.8,2.878269391779913,1.3535498998837117,0
rbt_637705,2.584052067524115,90.3,2.8616301965937043,2.1677917506789472,0
rbt_1105833,2.576109633174209,90.3,2.8528345882327897,1.341077804776105,0
smt_37960,6.152411195240764,216.3,2.8443879774575884,1.6621678871444336,0
smt_37962,6.151979456821183,216.3,2.8441883757841806,1.6621004276783617,0
rbt_1607276,2.566190226149715,90.3,2.841849641361811,1.335392774513201,0
smt_37981,6.131791565587203,216.3,2.834855092735646,1.637022350303396,0
smt_37951,6.131388154155025,216.3,2.8346685872191513,1.6369559114344412,0
smt_37952,6.130984038018756,216.3,2.834481755903262,1.6368913678615975,0
smt_37953,6.13048655970652,216.3,2.8342517613067586,1.636809835482077,0
smt_37954,6.130007301030139,216.3,2.834030190027803,1.6386888326765805,0
smt_37955,6.129487203476928,216.3,2.833789738084571,1.638602746964646,0
smt_37956,6.129069006494818,216.3,2.8335963969000546,1.6385369938379182,0
smt_37957,6.128574356357655,216.3,2.833367709827857,1.6384577830834486,0
smt_37958,6.128082504010528,216.3,2.833140316232329,1.6383796943175966,0
smt_37959,6.127581252294677,216.3,2.832908577112657,1.6383001442722358,0
smt_25183,6.0622192106970605,216.3,2.802690342439695,1.5148310510000969,0
smt_25117,6.061575908198289,216.3,2.8023929302812247,1.5145335956647268,0
smt_25116,6.060914596567716,216.3,2.8020871921256196,1.5142280994655233,0
smt_25115,6.060397166338189,216.3,2.8018479733417423,1.5139892728552689,0
smt_25114,6.059943030847196,216.3,2.801638017035227,1.5137798079616076,0
smt_25113,6.059413039524663,216.3,2.8013929909961455,1.5135355298793456,0
smt_25112,6.058853180688334,216.3,2.801134156582678,1.5132776900593996,0
smt_25111,6.058486378619931,216.3,2.800964576338387,1.513108875721351,0
smt_25110,6.058221436852438,216.3,2.8008420882350613,1.512986997085007,0
smt_25109,6.057522621576077,216.3,2.8005190113620326,1.5126657550491827,0
smt_25108,6.056990555934178,216.3,2.8002730263218574,1.5124213884075264,0
smt_25107,6.056273759003774,216.3,2.799941636155235,1.512092482132096,0
smt_25106,6.055647892218031,216.3,2.7996522848904437,1.5118055855174275,0
smt_25105,6.055007625571061,216.3,2.7993562762695614,1.5115123645968536,0
smt_29427,6.054367020983315,216.3,2.799060111411611,1.5112192697067564,0
smt_6407,6.053098951790102,216.3,2.798473856583496,1.51063992343175,0
smt_22794,6.052467762654292,216.3,2.7981820446852943,1.5103519638589453,0
smt_6477,6.051771132430116,216.3,2.797859978007451,1.510034469281993,0
smt_6641,6.050866059455065,216.3,2.7974415438997062,1.509622479182611,0
smt_6157,6.050230522639316,216.3,2.797147721978417,1.509333523754549,0
smt_6694,6.049512710758564,216.3,2.7968158625790864,1.5090075009375734,0
rbt_1607319,2.5253438985731678,90.3,2.796615613037838,1.986617791460939,0
rbt_622709,2.5224338147658427,90.3,2.793392928865828,1.3133631639395174,0
rbt_1607328,2.519791437996066,90.3,2.7904667087442596,1.312209895375614,0
smt_37979,6.034908297833869,216.3,2.7900639379722003,1.6266326722374538,0
smt_37980,6.034479497487017,216.3,2.7898656946310756,1.6265449857394076,0
rbt_607366,2.5187646010126428,90.3,2.789329569227733,1.3108481888398396,0
smt_6074,7.935193333887268,286.65,2.7682516427306014,1.6279601732787927,0
smt_6082,7.934706049510085,286.65,2.768081649925026,1.6278654935973425,0
smt_6649,7.934225765418864,286.65,2.7679140992216515,1.6277723535186217,0
smt_29408,7.933756126013856,286.65,2.7677502619968104,1.6276815525368244,0
smt_6422,7.933285437300784,286.65,2.7675860587129892,1.6275907576710986,0
smt_22683,7.932812278458826,286.65,2.7674209937062018,1.6274996585445667,0
smt_22793,7.912314877396467,286.65,2.760270321784918,1.6132445819525068,0
smt_22790,7.9118234510377405,286.65,2.76009888401805,1.6131456746863506,0
smt_6370,7.911349003918674,286.65,2.7599333695861414,1.6130504437642121,0
smt_29449,7.911264861370264,286.65,2.7599040158277566,1.613715471463501,0
smt_29409,7.910872038185257,286.65,2.759766976516748,1.6129549789987578,0
smt_6401,7.910790739834518,286.65,2.7597386149780285,1.6136220810582216,0
smt_5650,7.91037228369743,286.65,2.7595926334196514,1.6128550615179822,0
smt_21348,7.910313879274813,286.65,2.759572258599272,1.6135308335154317,0
smt_6094,7.909878853088092,286.65,2.7594204964549425,1.6127561985158778,0
smt_29477,7.909499921016771,286.65,2.759288303163011,1.6126810895527506,0
smt_29450,7.909036782168002,286.65,2.759126733705914,1.612589254411603,0
smt_6231,7.9085275399489765,286.65,2.7589490807427097,1.6124881497758885,0
smt_6340,7.908050264027397,286.65,2.7587825794618515,1.6123937925453256,0
sbt_21953,4.492568442744677,163.8,2.7427157770114023,1.2909175890167826,0
sbt_21849,4.492568370441988,163.8,2.742715732870566,1.290917568019873,0
sbt_21968,4.492568282825581,163.8,2.7427156793806966,1.290917542624375,0
smt_6581,7.838233950261539,286.65,2.7344266353607325,1.584322692887838,0
smt_6701,7.837754016322125,286.65,2.73425920681044,1.5842301502880398,0
smt_21959,7.837226911270211,286.65,2.7340753222641587,1.5841279539056476,0
smt_19219,7.826505277977323,286.65,2.730335000166518,1.572880123465695,0
smt_5952,7.825999751368156,286.65,2.7301586434216487,1.5727752468867668,0
smt_29478,7.825472511014855,286.65,2.7299747116744655,1.5726660240157428,0
smt_22841,7.825007905351825,286.65,2.7298126305082246,1.5725700652005996,0
smt_6660,7.824505984130521,286.65,2.729637531529922,1.5724665495648387,0
smt_22845,7.781305234287388,286.65,2.7145666262994554,1.547472855911387,0
smt_18913,7.780719997037175,286.65,2.714362461900288,1.5473509002872283,0
smt_5786,7.78015271629841,286.65,2.7141645617646644,1.5472329711631705,0
smt_29479,7.779664297029274,286.65,2.7139941730435284,1.547131700184651,0
smt_19224,7.779162296682838,286.65,2.713819046461831,1.5470278434243552,0
rbt_1633892,2.434840914888095,90.3,2.6963908249037596,1.2674059150281167,0
sbt_21137,4.41382930340614,163.8,2.6946454843749326,1.267423263595642,0
rbt_1134165,2.4279267084257175,90.3,2.688733896373995,1.2653327696185046,0
rbt_1131858,2.4266340159461137,90.3,2.6873023432404364,1.2642785217034416,0
rbt_1607353,2.4061228162277257,90.3,2.6645878363540705,1.252380142468533,0
sbt_34390,4.348297628190759,163.8,2.6546383566488143,2.0110190944359094,0
smt_37973,5.61840534524193,216.3,2.597505938623176,1.5418608960780127,0
smt_37991,5.61821854079495,216.3,2.5974195750323394,1.5418319183862763,0
smt_37974,5.617955219590636,216.3,2.597297836149161,1.5417929085018818,0
smt_37990,5.617506253686207,216.3,2.5970902698503036,1.541719247152485,0
smt_37975,5.61709097822411,216.3,2.5968982793454045,1.5416528799292906,0
smt_37976,5.6166415298895345,216.3,2.596690490009031,1.54158046047477,0
smt_37977,5.616198236316006,216.3,2.5964855461470204,1.5415090410438241,0
smt_37978,5.615776313194087,216.3,2.5962904822903776,1.5414429684449533,0
smt_37970,5.5687926409351505,216.3,2.5745689509640086,1.5304274018803958,0
smt_37971,5.568201713714025,216.3,2.574295752988453,1.530324728335609,0
smt_37972,5.5678961939657095,216.3,2.5741545048385155,1.5302781053219492,0
smt_37989,5.56746005639338,216.3,2.573952869345067,1.5302227115379958,0
sbt_20633,4.163847568245178,163.8,2.542031482445163,1.677747314874327,0
smt_37964,5.451946576031609,216.3,2.520548578840318,1.5034277737764012,0
smt_37965,5.450403092723865,216.3,2.5198349943244867,1.50317632482695,0
smt_37994,5.4502015110242805,216.3,2.5197417989016553,1.5031392718094432,0
smt_37995,5.450196741017041,216.3,2.5197395936278504,1.5031385600499594,0
smt_37996,5.450190999154453,216.3,2.519736939045054,1.5031456672312746,0
smt_37966,5.449841732891492,216.3,2.5195754659692517,1.5030915828513383,0
smt_37967,5.4494146763893365,216.3,2.519378028843891,1.5030238067650536,0
smt_37968,5.448976702511798,216.3,2.519175544388256,1.502954209310815,0
smt_37969,5.448546761399234,216.3,2.518976773647357,1.5028839457677492,0
sbt_4619,5.443895537335376,216.3,2.516826415781496,1.1830813491346663,0
rbt_606110,1.5131235004573398,61.95,2.442491526161969,1.1475897222061933,0
rbt_1607284,2.1971396445368345,90.3,2.433155752532486,1.143924547042663,0
rbt_1607302,1.4894188474129022,61.95,2.404227356598712,1.1295598706861165,0
rbt_607382,2.1480089145018666,90.3,2.3787474136233295,1.1184228108810557,0
rbt_1607273,1.8224187934884373,76.65,2.3775848577800875,1.117247576676111,0
sbt_26614,3.8514706985159792,162.75,2.3664950528516004,1.7924447916562158,0
sbt_26512,3.851469118369256,162.75,2.3664940819473155,1.792443807588745,0
sbt_16246,3.851468541982495,162.75,2.3664937277926237,1.7924434492841756,0
sbt_5828,3.8514658109450943,163.8,2.351322228904209,1.7809517441991298,0
sbt_3790,3.824251332894143,163.8,2.3347077734396477,1.0968356639271994,0
rbt_1137150,1.437566702334813,61.95,2.3205273645436852,1.0909501513785471,0
rbt_3405843,2.0894174880722245,90.3,2.3138621130367936,1.0881329376532993,0
rbt_1607288,1.7563917734845051,76.65,2.291443931486634,1.0770483974602172,0
rbt_605817,1.7472436146386714,76.65,2.279508955823446,1.0715051252029106,0
smt_13591,3.7105342626728137,163.8,2.265283432645185,1.1230743173844904,0
sbt_30492,2.820205113605712,124.95,2.2570669176516303,1.0607534991385623,0
rbt_607387,2.027835208419331,90.3,2.2456646826349185,1.055377075212384,0
sbt_21147,2.8731817009106506,128.1,2.242920921866238,1.0539989890212722,0
sbt_17923,2.873176236501845,128.1,2.2429166561294656,1.0539946810492173,0
rbt_626695,2.018755201790491,90.3,2.2356093043084067,1.6935874686122163,0
rbt_623432,2.018739497199285,90.3,2.235591912734535,1.0512203606964203,0
sbt_3473,3.637401305320118,163.8,2.2206357175336495,1.0438894344423515,0
sbt_26790,4.790679975961411,216.3,2.2148312417759644,1.0414763343471642,0
smt_18691,6.337616404886655,286.65,2.2109249624582787,1.161351370229258,0
smt_18692,6.336909350903703,286.65,2.210678301379279,1.1611626162714133,0
smt_22142,6.336279084272454,286.65,2.2104584281431903,1.1609947571740296,0
smt_29410,6.335707107602454,286.65,2.210258889796775,1.1608427462862827,0
smt_4821,6.3351614239392315,286.65,2.2100685239627533,1.1606980111286385,0
smt_18693,6.334496894635716,286.65,2.2098366979367583,1.160522134508747,0
smt_5832,6.333884527567678,286.65,2.2096230690973937,1.160360434521393,0
smt_18694,6.333243311231568,286.65,2.2093993759747317,1.1601914993065503,0
smt_5643,6.33267819861688,286.65,2.2092022322054357,1.1600429398459962,0
smt_29483,6.332116555303531,286.65,2.2090062987279024,1.1598955953254702,0
smt_6014,6.3315602967220865,286.65,2.2088122437544344,1.1597499618170242,0
smt_18695,6.33091861173123,286.65,2.2085883871380534,1.1595823327364334,0
smt_29482,6.330348095719509,286.65,2.2083893583532213,1.1594336288778024,0
smt_6195,6.3297501473841296,286.65,2.2081807595967664,1.1592781127392626,0
smt_6105,6.329150068943771,286.65,2.2079714177372303,1.15912239122918,0
smt_19334,6.2845113962324275,286.65,2.192398882341681,1.1376362539711529,0
smt_19331,6.283890167573732,286.65,2.192182162070027,1.1374429174751763,0
smt_22269,6.283280038801565,286.65,2.191969314076946,1.137253326269945,0
sbt_34896,4.684047123542347,216.3,2.165532650736175,1.0179944589280276,0
sbt_34381,3.4982641113000317,163.8,2.1356923756410446,1.0040208380914815,0
smt_29480,6.08120544719761,286.65,2.121474078910731,1.1653701510451844,0
smt_19271,6.080015859466507,286.65,2.121059082318684,1.1650976962459585,0
smt_5537,6.079543506142645,286.65,2.120894298322918,1.1649899166097222,0
smt_19274,6.0568273392055145,286.65,2.1129695933038604,1.1512761017955806,0
smt_4942,6.0562730607901845,286.65,2.1127762291261765,1.1511480515652908,0
smt_18740,6.055732172694594,286.65,2.1125875362618505,1.1510234020564167,0
smt_5191,6.055193724016899,286.65,2.1123996944067325,1.1508996169642665,0
smt_5198,6.054660304338173,286.65,2.112213606955581,1.1507772860721424,0
smt_5549,6.054072345693804,286.65,2.1120084931776746,1.1506427922174398,0
smt_19273,6.053470924379941,286.65,2.111798682846657,1.1505055937127189,0
smt_5414,6.052965999353868,286.65,2.1116225359685568,1.1503907018401864,0
smt_5522,6.0524045183272275,286.65,2.111426659105958,1.1502632565228146,0
smt_40861,6.023722839473685,286.65,2.101420840562946,1.132822143845613,0
smt_40860,6.023361051679768,286.65,2.1012946281806277,1.1327382754297735,0
smt_40859,6.022980701887266,286.65,2.101161940306041,1.1326502529164808,0
smt_40858,6.022595043510818,286.65,2.1010274004921747,1.1325611579300663,0
smt_40857,6.022121674545657,286.65,2.100862262182333,1.132452015214121,0
smt_40856,6.0216445216124805,286.65,2.100695803806901,1.1323422405905428,0
smt_40855,6.021178803608022,286.65,2.100533334592019,1.1322353301463408,0
smt_40854,6.020738345118672,286.65,2.10037967734822,1.1321344309111032,0
smt_40853,6.020262762824363,286.65,2.1002137669019234,1.1320257181178788,0
smt_40852,6.01978433264317,286.65,2.100046862948952,1.131916598564492,0
smt_22899,6.01827116321964,286.65,2.09951898245932,1.1239926693928308,0
smt_5757,6.017972894255398,286.65,2.099414929096598,1.124188520201179,0
smt_5956,6.017703606957638,286.65,2.0993209862053512,1.1238456247097022,0
smt_6028,6.017381784661753,286.65,2.0992087160864306,1.1240361674227881,0
smt_22898,6.0167812955556315,286.65,2.098999230963067,1.1238817502771383,0
smt_16985,6.016292871209158,286.65,2.098828840470664,1.123756432088569,0
smt_6106,6.015730362104739,286.65,2.0986326049554296,1.123612411823606,0
smt_6021,6.015173120619482,286.65,2.098438207088604,1.1234700506275124,0
smt_6212,6.014631257682392,286.65,2.0982491741435174,1.1233319153538421,0
smt_6044,6.014068209910989,286.65,2.0980527507102704,1.1231886906064819,0
smt_6029,6.0135192038071965,286.65,2.097861225817965,1.1230493438369102,0
smt_19276,6.012970578810509,286.65,2.0976698338777284,1.1229103965468104,0
smt_22896,6.0123441321998055,286.65,2.0974512932844256,1.1227521108797467,0
smt_6693,6.0119213049086255,286.65,2.097303786816196,1.122645498945616,0
smt_41231,6.011904162853734,286.65,2.0972978066819237,1.1226411808800083,0
smt_41232,6.01130703650561,286.65,2.0970894946818803,1.1224909393896643,0
rbt_605808,1.8934696984446027,90.3,2.096865668266448,0.9852284332981477,0
smt_40865,6.003064690700275,286.65,2.0942140905983866,1.1204543935985216,0
smt_40864,6.002600464668503,286.65,2.094052141869354,1.1203417907693332,0
smt_40863,6.002129560639918,286.65,2.0938878634711036,1.1202278016883898,0
smt_40862,6.001658839073952,286.65,2.093723648726305,1.1201140924583421,0
rbt_1607326,1.8896545668056155,90.3,2.0926407162852887,0.9839348130542428,0
smt_40375,3.4146635191139314,163.8,2.084654163073218,1.0378174911550142,0
smt_40374,3.414112836610435,163.8,2.0843179710686415,1.0374888991500895,0
smt_40358,3.4135649697068424,163.8,2.083983497989525,1.0371626657124084,0
smt_40357,3.4129881028988605,163.8,2.0836313204510746,1.0368198992024191,0
smt_40356,3.4125022139888332,163.8,2.0833346849748677,1.036531778746479,0
smt_40355,3.4119472735474763,163.8,2.0829958934966277,1.0362033736808227,0
...